Version 4.1
SHEET 1 2928 1140
WIRE 1120 -416 1056 -416
WIRE 1264 -416 1200 -416
WIRE 352 -352 288 -352
WIRE 496 -352 432 -352
WIRE 1552 -352 1552 -384
WIRE 624 -336 624 -352
WIRE -224 -320 -272 -320
WIRE -112 -320 -144 -320
WIRE -48 -320 -112 -320
WIRE 64 -320 32 -320
WIRE 496 -320 496 -352
WIRE 592 -320 496 -320
WIRE 1168 -320 1168 -336
WIRE 752 -304 656 -304
WIRE 928 -304 848 -304
WIRE 1056 -304 1056 -416
WIRE 1056 -304 1008 -304
WIRE 1136 -304 1056 -304
WIRE 592 -288 496 -288
WIRE 1264 -288 1264 -416
WIRE 1264 -288 1200 -288
WIRE 1296 -288 1264 -288
WIRE 1136 -272 1088 -272
WIRE 624 -256 624 -272
WIRE 352 -240 288 -240
WIRE 496 -240 496 -288
WIRE 496 -240 432 -240
WIRE 1088 -224 1088 -272
WIRE 1168 -224 1168 -256
WIRE 1552 -224 1552 -272
WIRE -112 -208 -112 -320
WIRE 592 -32 592 -64
WIRE 592 -32 368 -32
WIRE 832 -32 592 -32
WIRE -736 -16 -848 -16
WIRE -656 -16 -736 -16
WIRE -544 -16 -656 -16
WIRE -416 -16 -480 -16
WIRE -336 -16 -416 -16
WIRE -192 -16 -272 -16
WIRE 1472 -16 1392 -16
WIRE 1616 -16 1536 -16
WIRE 1680 -16 1616 -16
WIRE 1856 -16 1744 -16
WIRE 1920 -16 1856 -16
WIRE 2048 -16 1920 -16
WIRE -848 0 -848 -16
WIRE -192 0 -192 -16
WIRE 1392 0 1392 -16
WIRE 2048 0 2048 -16
WIRE -736 16 -736 -16
WIRE 64 16 48 16
WIRE 144 16 128 16
WIRE 256 16 224 16
WIRE 976 16 960 16
WIRE 1072 16 1056 16
WIRE 1920 16 1920 -16
WIRE 368 48 368 -32
WIRE 832 48 832 -32
WIRE -416 64 -416 -16
WIRE 1616 64 1616 -16
WIRE 1920 96 1920 80
WIRE 2048 96 2048 80
WIRE 2048 96 1920 96
WIRE -848 112 -848 80
WIRE -736 112 -736 80
WIRE -736 112 -848 112
WIRE -848 128 -848 112
WIRE -656 128 -656 -16
WIRE -544 128 -656 128
WIRE 48 128 48 16
WIRE 48 128 -288 128
WIRE 112 128 48 128
WIRE 256 128 256 16
WIRE 256 128 192 128
WIRE 320 128 256 128
WIRE 960 128 960 16
WIRE 960 128 880 128
WIRE 1008 128 960 128
WIRE 1136 128 1136 16
WIRE 1136 128 1088 128
WIRE 1488 128 1136 128
WIRE 1856 128 1856 -16
WIRE 1856 128 1744 128
WIRE 2048 128 2048 96
WIRE -544 208 -640 208
WIRE -192 208 -192 80
WIRE -192 208 -288 208
WIRE 368 208 368 144
WIRE 368 208 -192 208
WIRE 544 208 368 208
WIRE 832 208 832 144
WIRE 832 208 624 208
WIRE 1392 208 1392 80
WIRE 1392 208 832 208
WIRE 1488 208 1392 208
WIRE 1856 208 1744 208
WIRE -544 288 -640 288
WIRE -96 288 -288 288
WIRE 368 288 368 208
WIRE 832 288 832 208
WIRE 1488 288 1296 288
WIRE 1856 288 1744 288
WIRE -96 368 -96 288
WIRE 48 368 -96 368
WIRE 112 368 48 368
WIRE 256 368 192 368
WIRE 320 368 256 368
WIRE 960 368 880 368
WIRE 1008 368 960 368
WIRE 1136 368 1088 368
WIRE 1296 368 1296 288
WIRE 1296 368 1136 368
WIRE -416 400 -416 352
WIRE 1616 400 1616 352
WIRE 368 448 368 384
WIRE 592 448 368 448
WIRE 832 448 832 384
WIRE 832 448 592 448
WIRE 48 464 48 368
WIRE 80 464 48 464
WIRE 160 464 144 464
WIRE 256 464 256 368
WIRE 256 464 240 464
WIRE 592 464 592 448
WIRE 960 464 960 368
WIRE 976 464 960 464
WIRE 1072 464 1056 464
WIRE 1136 464 1136 368
FLAG -848 128 0
FLAG -416 400 0
FLAG 2048 128 0
FLAG 1616 400 0
FLAG 592 464 0
FLAG 1552 -224 0
FLAG -640 208 HI
FLAG 1856 288 HI
FLAG -640 288 LI
FLAG 1856 208 LI
FLAG 752 -304 HI
FLAG 288 -352 0
FLAG 288 -240 0
FLAG 1552 -384 V_HT
FLAG 592 -64 V_HT
FLAG -112 -208 0
FLAG 64 -320 +V
FLAG 624 -352 +V
FLAG 1296 -288 LI
FLAG 1088 -224 0
FLAG 848 -304 HI
FLAG 624 -256 -V
FLAG -272 -320 -V
FLAG 1168 -224 -V
FLAG 1168 -336 +V
SYMBOL nmos 320 48 R0
SYMATTR InstName M1
SYMATTR Value IPI075N15N3
SYMBOL PowerProducts\\LTC4446 -416 208 R0
SYMATTR InstName IC1
SYMBOL cap -336 0 R270
WINDOW 0 32 32 VTop 2
WINDOW 3 0 32 VBottom 2
SYMATTR InstName Cboot-1
SYMATTR Value 1Á
SYMATTR SpiceLine V=12
SYMBOL schottky -544 0 R270
WINDOW 0 32 32 VTop 2
WINDOW 3 0 32 VBottom 2
SYMATTR InstName D1
SYMATTR Value 1N914
SYMBOL voltage -848 -16 R0
WINDOW 123 0 0 Left 0
WINDOW 39 0 0 Left 0
SYMATTR InstName V4
SYMATTR Value 12V
SYMBOL res 208 112 R90
WINDOW 0 0 56 VBottom 2
WINDOW 3 32 56 VTop 2
SYMATTR InstName R1
SYMATTR Value 8.2
SYMBOL res 208 352 R90
WINDOW 0 0 56 VBottom 2
WINDOW 3 32 56 VTop 2
SYMATTR InstName R2
SYMATTR Value 8.2
SYMBOL nmos 320 288 R0
SYMATTR InstName M2
SYMATTR Value IPI075N15N3
SYMBOL res -208 -16 R0
SYMATTR InstName Rboot-1
SYMATTR Value 2
SYMBOL nmos 880 48 M0
SYMATTR InstName M3
SYMATTR Value IPI075N15N3
SYMBOL PowerProducts\\LTC4446 1616 208 M0
SYMATTR InstName IC2
SYMBOL cap 1536 0 M270
WINDOW 0 32 32 VTop 2
WINDOW 3 0 32 VBottom 2
SYMATTR InstName Cboot-2
SYMATTR Value 1Á
SYMATTR SpiceLine V=12
SYMBOL schottky 1744 0 M270
WINDOW 0 32 32 VTop 2
WINDOW 3 0 32 VBottom 2
SYMATTR InstName Dboot-2
SYMATTR Value 1N914
SYMBOL voltage 2048 -16 M0
WINDOW 123 0 0 Left 0
WINDOW 39 0 0 Left 0
SYMATTR InstName V6
SYMATTR Value 12V
SYMBOL res 992 112 M90
WINDOW 0 0 56 VBottom 2
WINDOW 3 32 56 VTop 2
SYMATTR InstName R3
SYMATTR Value 8.2
SYMBOL res 992 352 M90
WINDOW 0 0 56 VBottom 2
WINDOW 3 32 56 VTop 2
SYMATTR InstName R7
SYMATTR Value 8.2
SYMBOL schottky 1072 448 M90
WINDOW 0 0 32 VBottom 2
WINDOW 3 32 32 VTop 2
SYMATTR InstName D5
SYMATTR Value MBRS360
SYMBOL res 960 448 M90
WINDOW 0 0 56 VBottom 2
WINDOW 3 32 56 VTop 2
SYMATTR InstName R9
SYMATTR Value 4
SYMBOL nmos 880 288 M0
SYMATTR InstName M4
SYMATTR Value IPI075N15N3
SYMBOL res 1408 -16 M0
SYMATTR InstName R10
SYMATTR Value 2
SYMBOL voltage 1552 -368 R0
WINDOW 123 0 0 Left 0
WINDOW 39 0 0 Left 0
SYMATTR InstName V7
SYMATTR Value 48
SYMBOL res 640 192 R90
WINDOW 0 0 56 VBottom 2
WINDOW 3 32 56 VTop 2
SYMATTR InstName R11
SYMATTR Value 1
SYMBOL Comparators\\LT1721 624 -368 R0
SYMATTR InstName U3
SYMBOL voltage 448 -240 R90
WINDOW 123 0 0 Left 0
WINDOW 39 0 0 Left 0
WINDOW 3 56 -24 VRight 2
WINDOW 0 -21 90 VRight 2
SYMATTR Value SINE(0 5 50)
SYMATTR InstName V1
SYMBOL voltage 448 -352 R90
WINDOW 3 -52 -147 VRight 2
WINDOW 123 0 0 Left 0
WINDOW 39 0 0 Left 0
WINDOW 0 15 89 VRight 2
SYMATTR Value PULSE(-5.5 5.5 0 0.00025 0.00025 0 0.0005)
SYMATTR InstName V2
SYMBOL schottky 1072 0 M90
WINDOW 0 0 32 VBottom 2
WINDOW 3 -55 39 VTop 2
SYMATTR InstName D6
SYMATTR Value MBRS360
SYMBOL res 960 0 M90
WINDOW 0 0 56 VBottom 2
WINDOW 3 32 56 VTop 2
SYMATTR InstName R8
SYMATTR Value 4
SYMBOL schottky 128 32 M270
WINDOW 0 32 32 VTop 2
WINDOW 3 87 31 VBottom 2
SYMATTR InstName D2
SYMATTR Value MBRS360
SYMBOL res 240 32 M270
WINDOW 0 32 56 VTop 2
WINDOW 3 0 56 VBottom 2
SYMATTR InstName R4
SYMATTR Value 4
SYMBOL schottky 144 480 M270
WINDOW 0 32 32 VTop 2
WINDOW 3 0 32 VBottom 2
SYMATTR InstName D3
SYMATTR Value MBRS360
SYMBOL res 256 480 M270
WINDOW 0 32 56 VTop 2
WINDOW 3 0 56 VBottom 2
SYMATTR InstName R5
SYMATTR Value 4
SYMBOL voltage 48 -320 R90
WINDOW 123 0 0 Left 0
WINDOW 39 0 0 Left 0
SYMATTR InstName V3
SYMATTR Value 15
SYMBOL Comparators\\LT1721 1168 -352 R0
SYMATTR InstName U4
SYMBOL res 1216 -432 R90
WINDOW 0 -10 78 VBottom 2
WINDOW 3 -35 21 VTop 2
SYMATTR InstName R12
SYMATTR Value 50k
SYMBOL res 1024 -320 R90
WINDOW 0 0 56 VBottom 2
WINDOW 3 32 56 VTop 2
SYMATTR InstName R13
SYMATTR Value 10k
SYMBOL voltage -128 -320 R90
WINDOW 123 0 0 Left 0
WINDOW 39 0 0 Left 0
SYMATTR InstName V5
SYMATTR Value 15
SYMBOL cap -752 16 R0
SYMATTR InstName C3
SYMATTR Value 10Á
SYMBOL cap 1904 16 R0
SYMATTR InstName C4
TEXT -280 408 Left 2 !.tran 0.02
